<?xml version="1.0" encoding="UTF-8" standalone="yes"?>
<template encoding-version="1.3">
    <description></description>
    <groupId>30089710-0188-1000-90e0-c173850b0114</groupId>
    <name>generate_flows</name>
    <snippet>
        <connections>
            <id>4ea5ec49-7a13-3558-0000-000000000000</id>
            <parentGroupId>9bff0035-8017-30aa-0000-000000000000</parentGroupId>
            <backPressureDataSizeThreshold>1 GB</backPressureDataSizeThreshold>
            <backPressureObjectThreshold>10000</backPressureObjectThreshold>
            <destination>
                <groupId>9bff0035-8017-30aa-0000-000000000000</groupId>
                <id>be2b503a-8a98-34bf-0000-000000000000</id>
                <type>PROCESSOR</type>
            </destination>
            <flowFileExpiration>0 sec</flowFileExpiration>
            <labelIndex>1</labelIndex>
            <loadBalanceCompression>DO_NOT_COMPRESS</loadBalanceCompression>
            <loadBalancePartitionAttribute></loadBalancePartitionAttribute>
            <loadBalanceStatus>LOAD_BALANCE_NOT_CONFIGURED</loadBalanceStatus>
            <loadBalanceStrategy>DO_NOT_LOAD_BALANCE</loadBalanceStrategy>
            <name></name>
            <selectedRelationships>success</selectedRelationships>
            <source>
                <groupId>9bff0035-8017-30aa-0000-000000000000</groupId>
                <id>4384d2de-dbba-3220-0000-000000000000</id>
                <type>PROCESSOR</type>
            </source>
            <zIndex>0</zIndex>
        </connections>
        <connections>
            <id>7fbdb730-882d-3729-0000-000000000000</id>
            <parentGroupId>9bff0035-8017-30aa-0000-000000000000</parentGroupId>
            <backPressureDataSizeThreshold>1 GB</backPressureDataSizeThreshold>
            <backPressureObjectThreshold>10000</backPressureObjectThreshold>
            <destination>
                <groupId>9bff0035-8017-30aa-0000-000000000000</groupId>
                <id>43a868e0-5683-3ca5-0000-000000000000</id>
                <type>PROCESSOR</type>
            </destination>
            <flowFileExpiration>0 sec</flowFileExpiration>
            <labelIndex>1</labelIndex>
            <loadBalanceCompression>DO_NOT_COMPRESS</loadBalanceCompression>
            <loadBalancePartitionAttribute></loadBalancePartitionAttribute>
            <loadBalanceStatus>LOAD_BALANCE_NOT_CONFIGURED</loadBalanceStatus>
            <loadBalanceStrategy>DO_NOT_LOAD_BALANCE</loadBalanceStrategy>
            <name></name>
            <selectedRelationships>success</selectedRelationships>
            <source>
                <groupId>9bff0035-8017-30aa-0000-000000000000</groupId>
                <id>be2b503a-8a98-34bf-0000-000000000000</id>
                <type>PROCESSOR</type>
            </source>
            <zIndex>0</zIndex>
        </connections>
        <connections>
            <id>e26d82c3-078c-3696-0000-000000000000</id>
            <parentGroupId>9bff0035-8017-30aa-0000-000000000000</parentGroupId>
            <backPressureDataSizeThreshold>1 GB</backPressureDataSizeThreshold>
            <backPressureObjectThreshold>10000</backPressureObjectThreshold>
            <destination>
                <groupId>9bff0035-8017-30aa-0000-000000000000</groupId>
                <id>4384d2de-dbba-3220-0000-000000000000</id>
                <type>PROCESSOR</type>
            </destination>
            <flowFileExpiration>0 sec</flowFileExpiration>
            <labelIndex>1</labelIndex>
            <loadBalanceCompression>DO_NOT_COMPRESS</loadBalanceCompression>
            <loadBalancePartitionAttribute></loadBalancePartitionAttribute>
            <loadBalanceStatus>LOAD_BALANCE_NOT_CONFIGURED</loadBalanceStatus>
            <loadBalanceStrategy>DO_NOT_LOAD_BALANCE</loadBalanceStrategy>
            <name></name>
            <selectedRelationships>success</selectedRelationships>
            <source>
                <groupId>9bff0035-8017-30aa-0000-000000000000</groupId>
                <id>f039a7de-f210-34a6-0000-000000000000</id>
                <type>PROCESSOR</type>
            </source>
            <zIndex>0</zIndex>
        </connections>
        <processors>
            <id>4384d2de-dbba-3220-0000-000000000000</id>
            <parentGroupId>9bff0035-8017-30aa-0000-000000000000</parentGroupId>
            <position>
                <x>608.0</x>
                <y>0.0</y>
            </position>
            <bundle>
                <artifact>nifi-standard-nar</artifact>
                <group>org.apache.nifi</group>
                <version>1.21.0</version>
            </bundle>
            <config>
                <backoffMechanism>PENALIZE_FLOWFILE</backoffMechanism>
                <bulletinLevel>WARN</bulletinLevel>
                <comments></comments>
                <concurrentlySchedulableTaskCount>1</concurrentlySchedulableTaskCount>
                <descriptors>
                    <entry>
                        <key>Replacement Strategy</key>
                        <value>
                            <name>Replacement Strategy</name>
                        </value>
                    </entry>
                    <entry>
                        <key>Regular Expression</key>
                        <value>
                            <dependencies>
<dependentValues>Regex Replace</dependentValues>
<dependentValues>Literal Replace</dependentValues>
<propertyName>Replacement Strategy</propertyName>
                            </dependencies>
                            <name>Regular Expression</name>
                        </value>
                    </entry>
                    <entry>
                        <key>Replacement Value</key>
                        <value>
                            <dependencies>
<dependentValues>Prepend</dependentValues>
<dependentValues>Regex Replace</dependentValues>
<dependentValues>Always Replace</dependentValues>
<dependentValues>Append</dependentValues>
<dependentValues>Literal Replace</dependentValues>
<propertyName>Replacement Strategy</propertyName>
                            </dependencies>
                            <name>Replacement Value</name>
                        </value>
                    </entry>
                    <entry>
                        <key>Text to Prepend</key>
                        <value>
                            <dependencies>
<dependentValues>Surround</dependentValues>
<propertyName>Replacement Strategy</propertyName>
                            </dependencies>
                            <name>Text to Prepend</name>
                        </value>
                    </entry>
                    <entry>
                        <key>Text to Append</key>
                        <value>
                            <dependencies>
<dependentValues>Surround</dependentValues>
<propertyName>Replacement Strategy</propertyName>
                            </dependencies>
                            <name>Text to Append</name>
                        </value>
                    </entry>
                    <entry>
                        <key>Character Set</key>
                        <value>
                            <name>Character Set</name>
                        </value>
                    </entry>
                    <entry>
                        <key>Maximum Buffer Size</key>
                        <value>
                            <name>Maximum Buffer Size</name>
                        </value>
                    </entry>
                    <entry>
                        <key>Evaluation Mode</key>
                        <value>
                            <name>Evaluation Mode</name>
                        </value>
                    </entry>
                    <entry>
                        <key>Line-by-Line Evaluation Mode</key>
                        <value>
                            <name>Line-by-Line Evaluation Mode</name>
                        </value>
                    </entry>
                </descriptors>
                <executionNode>ALL</executionNode>
                <lossTolerant>false</lossTolerant>
                <maxBackoffPeriod>10 mins</maxBackoffPeriod>
                <penaltyDuration>30 sec</penaltyDuration>
                <properties>
                    <entry>
                        <key>Replacement Strategy</key>
                        <value>Always Replace</value>
                    </entry>
                    <entry>
                        <key>Regular Expression</key>
                        <value>(?s)(^.*$)</value>
                    </entry>
                    <entry>
                        <key>Replacement Value</key>
                        <value>15793, tm204541, Omar Sharif,	Ragab, ACTOR
225931, tm204541, Faten Hamamah, Hamedah, ACTOR
225933, tm204541, Ahmed Ramzy, Mamdouh, ACTOR
498370, tm204541, Tewfik El Dekn, Ezzat, ACTOR
560735, tm204541, Ferdoos Mohammed, Ragab's Mother, ACTOR</value>
                    </entry>
                    <entry>
                        <key>Text to Prepend</key>
                    </entry>
                    <entry>
                        <key>Text to Append</key>
                    </entry>
                    <entry>
                        <key>Character Set</key>
                        <value>UTF-8</value>
                    </entry>
                    <entry>
                        <key>Maximum Buffer Size</key>
                        <value>1 MB</value>
                    </entry>
                    <entry>
                        <key>Evaluation Mode</key>
                        <value>Line-by-Line</value>
                    </entry>
                    <entry>
                        <key>Line-by-Line Evaluation Mode</key>
                        <value>All</value>
                    </entry>
                </properties>
                <retryCount>10</retryCount>
                <runDurationMillis>25</runDurationMillis>
                <schedulingPeriod>0 sec</schedulingPeriod>
                <schedulingStrategy>TIMER_DRIVEN</schedulingStrategy>
                <yieldDuration>1 sec</yieldDuration>
            </config>
            <executionNodeRestricted>false</executionNodeRestricted>
            <name>ReplaceText</name>
            <relationships>
                <autoTerminate>true</autoTerminate>
                <name>failure</name>
                <retry>false</retry>
            </relationships>
            <relationships>
                <autoTerminate>false</autoTerminate>
                <name>success</name>
                <retry>false</retry>
            </relationships>
            <state>STOPPED</state>
            <style/>
            <type>org.apache.nifi.processors.standard.ReplaceText</type>
        </processors>
        <processors>
            <id>43a868e0-5683-3ca5-0000-000000000000</id>
            <parentGroupId>9bff0035-8017-30aa-0000-000000000000</parentGroupId>
            <position>
                <x>8.0</x>
                <y>224.0</y>
            </position>
            <bundle>
                <artifact>nifi-aws-nar</artifact>
                <group>org.apache.nifi</group>
                <version>1.21.0</version>
            </bundle>
            <config>
                <backoffMechanism>PENALIZE_FLOWFILE</backoffMechanism>
                <bulletinLevel>WARN</bulletinLevel>
                <comments></comments>
                <concurrentlySchedulableTaskCount>1</concurrentlySchedulableTaskCount>
                <descriptors>
                    <entry>
                        <key>Object Key</key>
                        <value>
                            <name>Object Key</name>
                        </value>
                    </entry>
                    <entry>
                        <key>Bucket</key>
                        <value>
                            <name>Bucket</name>
                        </value>
                    </entry>
                    <entry>
                        <key>Content Type</key>
                        <value>
                            <name>Content Type</name>
                        </value>
                    </entry>
                    <entry>
                        <key>Content Disposition</key>
                        <value>
                            <name>Content Disposition</name>
                        </value>
                    </entry>
                    <entry>
                        <key>Cache Control</key>
                        <value>
                            <name>Cache Control</name>
                        </value>
                    </entry>
                    <entry>
                        <key>Access Key</key>
                        <value>
                            <name>Access Key</name>
                        </value>
                    </entry>
                    <entry>
                        <key>Secret Key</key>
                        <value>
                            <name>Secret Key</name>
                        </value>
                    </entry>
                    <entry>
                        <key>Credentials File</key>
                        <value>
                            <name>Credentials File</name>
                        </value>
                    </entry>
                    <entry>
                        <key>AWS Credentials Provider service</key>
                        <value>
                            <identifiesControllerService>org.apache.nifi.processors.aws.credentials.provider.service.AWSCredentialsProviderService</identifiesControllerService>
                            <name>AWS Credentials Provider service</name>
                        </value>
                    </entry>
                    <entry>
                        <key>s3-object-tags-prefix</key>
                        <value>
                            <name>s3-object-tags-prefix</name>
                        </value>
                    </entry>
                    <entry>
                        <key>s3-object-remove-tags-prefix</key>
                        <value>
                            <name>s3-object-remove-tags-prefix</name>
                        </value>
                    </entry>
                    <entry>
                        <key>Storage Class</key>
                        <value>
                            <name>Storage Class</name>
                        </value>
                    </entry>
                    <entry>
                        <key>Region</key>
                        <value>
                            <name>Region</name>
                        </value>
                    </entry>
                    <entry>
                        <key>Communications Timeout</key>
                        <value>
                            <name>Communications Timeout</name>
                        </value>
                    </entry>
                    <entry>
                        <key>Expiration Time Rule</key>
                        <value>
                            <name>Expiration Time Rule</name>
                        </value>
                    </entry>
                    <entry>
                        <key>FullControl User List</key>
                        <value>
                            <name>FullControl User List</name>
                        </value>
                    </entry>
                    <entry>
                        <key>Read Permission User List</key>
                        <value>
                            <name>Read Permission User List</name>
                        </value>
                    </entry>
                    <entry>
                        <key>Write Permission User List</key>
                        <value>
                            <name>Write Permission User List</name>
                        </value>
                    </entry>
                    <entry>
                        <key>Read ACL User List</key>
                        <value>
                            <name>Read ACL User List</name>
                        </value>
                    </entry>
                    <entry>
                        <key>Write ACL User List</key>
                        <value>
                            <name>Write ACL User List</name>
                        </value>
                    </entry>
                    <entry>
                        <key>Owner</key>
                        <value>
                            <name>Owner</name>
                        </value>
                    </entry>
                    <entry>
                        <key>canned-acl</key>
                        <value>
                            <name>canned-acl</name>
                        </value>
                    </entry>
                    <entry>
                        <key>SSL Context Service</key>
                        <value>
                            <identifiesControllerService>org.apache.nifi.ssl.SSLContextService</identifiesControllerService>
                            <name>SSL Context Service</name>
                        </value>
                    </entry>
                    <entry>
                        <key>Endpoint Override URL</key>
                        <value>
                            <name>Endpoint Override URL</name>
                        </value>
                    </entry>
                    <entry>
                        <key>Signer Override</key>
                        <value>
                            <name>Signer Override</name>
                        </value>
                    </entry>
                    <entry>
                        <key>custom-signer-class-name</key>
                        <value>
                            <dependencies>
<dependentValues>CustomSignerType</dependentValues>
<propertyName>Signer Override</propertyName>
                            </dependencies>
                            <name>custom-signer-class-name</name>
                        </value>
                    </entry>
                    <entry>
                        <key>custom-signer-module-location</key>
                        <value>
                            <dependencies>
<dependentValues>CustomSignerType</dependentValues>
<propertyName>Signer Override</propertyName>
                            </dependencies>
                            <name>custom-signer-module-location</name>
                        </value>
                    </entry>
                    <entry>
                        <key>Multipart Threshold</key>
                        <value>
                            <name>Multipart Threshold</name>
                        </value>
                    </entry>
                    <entry>
                        <key>Multipart Part Size</key>
                        <value>
                            <name>Multipart Part Size</name>
                        </value>
                    </entry>
                    <entry>
                        <key>Multipart Upload AgeOff Interval</key>
                        <value>
                            <name>Multipart Upload AgeOff Interval</name>
                        </value>
                    </entry>
                    <entry>
                        <key>Multipart Upload Max Age Threshold</key>
                        <value>
                            <name>Multipart Upload Max Age Threshold</name>
                        </value>
                    </entry>
                    <entry>
                        <key>s3-temporary-directory-multipart</key>
                        <value>
                            <name>s3-temporary-directory-multipart</name>
                        </value>
                    </entry>
                    <entry>
                        <key>server-side-encryption</key>
                        <value>
                            <name>server-side-encryption</name>
                        </value>
                    </entry>
                    <entry>
                        <key>encryption-service</key>
                        <value>
                            <identifiesControllerService>org.apache.nifi.processors.aws.s3.AmazonS3EncryptionService</identifiesControllerService>
                            <name>encryption-service</name>
                        </value>
                    </entry>
                    <entry>
                        <key>use-chunked-encoding</key>
                        <value>
                            <name>use-chunked-encoding</name>
                        </value>
                    </entry>
                    <entry>
                        <key>use-path-style-access</key>
                        <value>
                            <name>use-path-style-access</name>
                        </value>
                    </entry>
                    <entry>
                        <key>proxy-configuration-service</key>
                        <value>
                            <identifiesControllerService>org.apache.nifi.proxy.ProxyConfigurationService</identifiesControllerService>
                            <name>proxy-configuration-service</name>
                        </value>
                    </entry>
                    <entry>
                        <key>Proxy Host</key>
                        <value>
                            <name>Proxy Host</name>
                        </value>
                    </entry>
                    <entry>
                        <key>Proxy Host Port</key>
                        <value>
                            <name>Proxy Host Port</name>
                        </value>
                    </entry>
                    <entry>
                        <key>proxy-user-name</key>
                        <value>
                            <name>proxy-user-name</name>
                        </value>
                    </entry>
                    <entry>
                        <key>proxy-user-password</key>
                        <value>
                            <name>proxy-user-password</name>
                        </value>
                    </entry>
                </descriptors>
                <executionNode>ALL</executionNode>
                <lossTolerant>false</lossTolerant>
                <maxBackoffPeriod>10 mins</maxBackoffPeriod>
                <penaltyDuration>30 sec</penaltyDuration>
                <properties>
                    <entry>
                        <key>Object Key</key>
                        <value>${filename}</value>
                    </entry>
                    <entry>
                        <key>Bucket</key>
                        <value>nifi-demo518408</value>
                    </entry>
                    <entry>
                        <key>Content Type</key>
                    </entry>
                    <entry>
                        <key>Content Disposition</key>
                    </entry>
                    <entry>
                        <key>Cache Control</key>
                    </entry>
                    <entry>
                        <key>Access Key</key>
                    </entry>
                    <entry>
                        <key>Secret Key</key>
                    </entry>
                    <entry>
                        <key>Credentials File</key>
                    </entry>
                    <entry>
                        <key>AWS Credentials Provider service</key>
                    </entry>
                    <entry>
                        <key>s3-object-tags-prefix</key>
                    </entry>
                    <entry>
                        <key>s3-object-remove-tags-prefix</key>
                        <value>false</value>
                    </entry>
                    <entry>
                        <key>Storage Class</key>
                        <value>Standard</value>
                    </entry>
                    <entry>
                        <key>Region</key>
                        <value>us-east-1</value>
                    </entry>
                    <entry>
                        <key>Communications Timeout</key>
                        <value>30 secs</value>
                    </entry>
                    <entry>
                        <key>Expiration Time Rule</key>
                    </entry>
                    <entry>
                        <key>FullControl User List</key>
                        <value>${s3.permissions.full.users}</value>
                    </entry>
                    <entry>
                        <key>Read Permission User List</key>
                        <value>${s3.permissions.read.users}</value>
                    </entry>
                    <entry>
                        <key>Write Permission User List</key>
                        <value>${s3.permissions.write.users}</value>
                    </entry>
                    <entry>
                        <key>Read ACL User List</key>
                        <value>${s3.permissions.readacl.users}</value>
                    </entry>
                    <entry>
                        <key>Write ACL User List</key>
                        <value>${s3.permissions.writeacl.users}</value>
                    </entry>
                    <entry>
                        <key>Owner</key>
                        <value>${s3.owner}</value>
                    </entry>
                    <entry>
                        <key>canned-acl</key>
                        <value>${s3.permissions.cannedacl}</value>
                    </entry>
                    <entry>
                        <key>SSL Context Service</key>
                    </entry>
                    <entry>
                        <key>Endpoint Override URL</key>
                    </entry>
                    <entry>
                        <key>Signer Override</key>
                        <value>Default Signature</value>
                    </entry>
                    <entry>
                        <key>custom-signer-class-name</key>
                    </entry>
                    <entry>
                        <key>custom-signer-module-location</key>
                    </entry>
                    <entry>
                        <key>Multipart Threshold</key>
                        <value>5 GB</value>
                    </entry>
                    <entry>
                        <key>Multipart Part Size</key>
                        <value>5 GB</value>
                    </entry>
                    <entry>
                        <key>Multipart Upload AgeOff Interval</key>
                        <value>60 min</value>
                    </entry>
                    <entry>
                        <key>Multipart Upload Max Age Threshold</key>
                        <value>7 days</value>
                    </entry>
                    <entry>
                        <key>s3-temporary-directory-multipart</key>
                        <value>${java.io.tmpdir}</value>
                    </entry>
                    <entry>
                        <key>server-side-encryption</key>
                        <value>None</value>
                    </entry>
                    <entry>
                        <key>encryption-service</key>
                    </entry>
                    <entry>
                        <key>use-chunked-encoding</key>
                        <value>true</value>
                    </entry>
                    <entry>
                        <key>use-path-style-access</key>
                        <value>false</value>
                    </entry>
                    <entry>
                        <key>proxy-configuration-service</key>
                    </entry>
                    <entry>
                        <key>Proxy Host</key>
                    </entry>
                    <entry>
                        <key>Proxy Host Port</key>
                    </entry>
                    <entry>
                        <key>proxy-user-name</key>
                    </entry>
                    <entry>
                        <key>proxy-user-password</key>
                    </entry>
                </properties>
                <retryCount>10</retryCount>
                <runDurationMillis>0</runDurationMillis>
                <schedulingPeriod>0 sec</schedulingPeriod>
                <schedulingStrategy>TIMER_DRIVEN</schedulingStrategy>
                <yieldDuration>1 sec</yieldDuration>
            </config>
            <executionNodeRestricted>false</executionNodeRestricted>
            <name>PutS3Object</name>
            <relationships>
                <autoTerminate>true</autoTerminate>
                <name>failure</name>
                <retry>false</retry>
            </relationships>
            <relationships>
                <autoTerminate>true</autoTerminate>
                <name>success</name>
                <retry>false</retry>
            </relationships>
            <state>STOPPED</state>
            <style/>
            <type>org.apache.nifi.processors.aws.s3.PutS3Object</type>
        </processors>
        <processors>
            <id>be2b503a-8a98-34bf-0000-000000000000</id>
            <parentGroupId>9bff0035-8017-30aa-0000-000000000000</parentGroupId>
            <position>
                <x>608.0</x>
                <y>208.0</y>
            </position>
            <bundle>
                <artifact>nifi-update-attribute-nar</artifact>
                <group>org.apache.nifi</group>
                <version>1.21.0</version>
            </bundle>
            <config>
                <backoffMechanism>PENALIZE_FLOWFILE</backoffMechanism>
                <bulletinLevel>WARN</bulletinLevel>
                <comments></comments>
                <concurrentlySchedulableTaskCount>1</concurrentlySchedulableTaskCount>